# This file was generated by ISODISTORT, version 6.7.2
# Harold T. Stokes, Branton J. Campbell, David Tanner, Dorian M. Hatch
# Brigham Young University, Provo, Utah, USA
#
# Space Group: 221 Pm-3m      Oh-1
# Default space-group preferences: monoclinic axes a(b)c, monoclinic cell choice 1, orthorhombic axes abc, origin choice 2, hexagonal axes, SSG standard setting
# Lattice parameters: a=3.67367, b=3.67367, c=3.67367, alpha=90.00000, beta=90.00000, gamma=90.00000
# Fe0 3c (0,1/2,1/2)
# Fe1 1a (0,0,0)
# N2 1b (1/2,1/2,1/2)
# Include strain, displacive ALL distortions
# k point: X, k10 (0,1/2,0)
# IR: X5+, k10t9
# C1   (a,b;0,0;0,0)  11 P2_1/m, basis={(1,0,0),(0,2,0),(0,0,1)}, origin=(0,0,0), s=2, i=24, k-active= (0,1/2,0)
# Order parameter values:
#  Pm-3m[0,1/2,0]X5+(a,b;0,0;0,0) 11 P2_1/m s=2 i=24
#     [Fe0:c:dsp]A2u(a): 0.50000
#     [Fe0:c:dsp]A2u(b): 0.50000
#     [Fe0:c:dsp]Eu(a): 0.50000
#     [Fe0:c:dsp]Eu(b): 0.50000
#     [N2:b:dsp]T1u(a): 0.50000
#     [N2:b:dsp]T1u(b): 0.50000
#  Pm-3m[0,0,0]GM1+(a) 221 Pm-3m s=1 i=1
#     strain(a): 0.00000
#  Pm-3m[0,0,0]GM3+(a,b) 47 Pmmm s=1 i=6
#     strain(a): 0.00000
#     strain(b): 0.00000
#  Pm-3m[0,0,0]GM5+(0,0,a) 65 Cmmm s=1 i=6
#     strain(a): 0.00000

data_isodistort-output

_cell_length_a    3.67367
_cell_length_b    7.34735
_cell_length_c    3.67367
_cell_angle_alpha 90.00000
_cell_angle_beta  90.00000
_cell_angle_gamma 90.00000
_cell_volume      99.15885

_symmetry_space_group_name_H-M "P 1 21/m 1"
_symmetry_Int_Tables_number 11
_space_group.reference_setting '011:-P 2yb'
_space_group.transform_Pp_abc a,b,c;0,0,0

loop_
_space_group_symop_id
_space_group_symop_operation_xyz
1 x,y,z
2 -x,y+1/2,-z
3 -x,-y,-z
4 x,-y+1/2,z

loop_
_atom_site_label
_atom_site_type_symbol
_atom_site_symmetry_multiplicity
_atom_site_Wyckoff_label
_atom_site_fract_x
_atom_site_fract_y
_atom_site_fract_z
_atom_site_occupancy
_atom_site_fract_symmform
Fe0_1 Fe   2 e 0.09624 0.25000 0.40376  1.00000 Dx,0,Dz 
Fe0_2 Fe   2 e 0.59624 0.25000 -0.09624 1.00000 Dx,0,Dz 
Fe0_3 Fe   2 d 0.50000 0.00000 0.50000  1.00000 0,0,0   
Fe1_1 Fe   2 a 0.00000 0.00000 0.00000  1.00000 0,0,0   
N2_1  N    2 e 0.59624 0.25000 0.40376  1.00000 Dx,0,Dz 

_iso_displacivemode_number    6

loop_
_iso_displacivemode_ID
_iso_displacivemode_label
_iso_displacivemode_value
   1 Pm-3m[0,1/2,0]X5+(a,b;0,0;0,0)[Fe0:c:dsp]A2u(a) 0.50000
   2 Pm-3m[0,1/2,0]X5+(a,b;0,0;0,0)[Fe0:c:dsp]A2u(b) 0.50000
   3 Pm-3m[0,1/2,0]X5+(a,b;0,0;0,0)[Fe0:c:dsp]Eu(a) 0.50000
   4 Pm-3m[0,1/2,0]X5+(a,b;0,0;0,0)[Fe0:c:dsp]Eu(b) 0.50000
   5 Pm-3m[0,1/2,0]X5+(a,b;0,0;0,0)[N2:b:dsp]T1u(a) 0.50000
   6 Pm-3m[0,1/2,0]X5+(a,b;0,0;0,0)[N2:b:dsp]T1u(b) 0.50000

loop_
_iso_displacivemodenorm_ID
_iso_displacivemodenorm_value
   1 0.19248
   2 0.19248
   3 0.19248
   4 0.19248
   5 0.19248
   6 0.19248

loop_
_iso_deltacoordinate_ID
_iso_deltacoordinate_label
_iso_deltacoordinate_value
   1 Fe0_1_dx   0.09624
   2 Fe0_1_dz  -0.09624
   3 Fe0_2_dx   0.09624
   4 Fe0_2_dz  -0.09624
   5 N2_1_dx   0.09624
   6 N2_1_dz  -0.09624

loop_
_iso_coordinate_label
_iso_coordinate_formula
Fe0_1_x                 "0 + Fe0_1_dx"
Fe0_1_y                 "1/4"
Fe0_1_z                 "1/2 + Fe0_1_dz"
Fe0_2_x                 "1/2 + Fe0_2_dx"
Fe0_2_y                 "1/4"
Fe0_2_z                 "1 + Fe0_2_dz"
Fe0_3_x                 "1/2"
Fe0_3_y                 "0"
Fe0_3_z                 "1/2"
Fe1_1_x                 "0"
Fe1_1_y                 "0"
Fe1_1_z                 "0"
N2_1_x                  "1/2 + N2_1_dx"
N2_1_y                  "1/4"
N2_1_z                  "1/2 + N2_1_dz"

# matrix conversion: deltacoords(lattice units) = matrix.(modeamplitudes*modenormfactors)
# Square matrix with _iso_displacivemode_number rows and columns

loop_
_iso_displacivemodematrix_row
_iso_displacivemodematrix_col
_iso_displacivemodematrix_value
    1    1   1.00000
    2    4  -1.00000
    3    3   1.00000
    4    2  -1.00000
    5    5   1.00000
    6    6  -1.00000

_iso_magneticmode_number    0


_iso_rotationalmode_number    0


_iso_occupancymode_number    0

_iso_strainmode_number    4

loop_
_iso_strainmode_ID
_iso_strainmode_label
_iso_strainmode_value
   1 Pm-3m[0,0,0]GM1+(a)strain(a) 0.00000
   2 Pm-3m[0,0,0]GM3+(a,b)strain(a) 0.00000
   3 Pm-3m[0,0,0]GM3+(a,b)strain(b) 0.00000
   4 Pm-3m[0,0,0]GM5+(0,0,a)strain(a) 0.00000

loop_
_iso_strainmodenorm_ID
_iso_strainmodenorm_value
   1 0.57735
   2 0.81650
   3 0.70711
   4 1.41421

loop_
_iso_strain_ID
_iso_strain_label
_iso_strain_value
   1 E_1   0.00000
   2 E_2   0.00000
   3 E_3   0.00000
   4 E_4   0.00000
   5 E_5   0.00000
   6 E_6   0.00000

# matrix conversion: strains(parent) = matrix * modeamplitudes
# Rectangular matrix with 6 rows and _iso_strainmode_number columns

loop_
_iso_strainmodematrix_row
_iso_strainmodematrix_col
_iso_strainmodematrix_value
    1    1   1.00000
    1    2  -0.50000
    1    3   1.00000
    2    1   1.00000
    2    2  -0.50000
    2    3  -1.00000
    3    1   1.00000
    3    2   1.00000
    5    4   1.00000

# end of structure file
# end of cif
